<?xml version="1.0" encoding="UTF-8"?>
<nodes>
    <node id="center" x="0" y="0" type="traffic_light"/>
    <node id="north" x="0" y="50" type="priority"/>
    <node id="south" x="0" y="-50" type="priority"/>
    <node id="east" x="50" y="0" type="priority"/>
    <node id="west" x="-50" y="0" type="priority"/>
</nodes>