<nodes>
    <!-- Intersection center (traffic light) -->
    <node id="center" x="0" y="0" type="traffic_light"/>
    
    <!-- North, South, East, West nodes -->
    <node id="north" x="0" y="100" type="priority"/>
    <node id="south" x="0" y="-100" type="priority"/>
    <node id="east" x="100" y="0" type="priority"/>
    <node id="west" x="-100" y="0" type="priority"/>
</nodes>