<connections>
    <!-- West to East -->
    <connection from="west_to_center" to="center_to_east" fromLane="0" toLane="0"/>
    
    <!-- East to West -->
    <connection from="east_to_center" to="center_to_west" fromLane="0" toLane="0"/>
    
    <!-- North to South -->
    <connection from="north_to_center" to="center_to_south" fromLane="0" toLane="0"/>
    
    <!-- South to North -->
    <connection from="south_to_center" to="center_to_north" fromLane="0" toLane="0"/>
</connections>