<additional>
    <tlLogic id="center" type="static" programID="default" offset="0">
        <!-- Phase 1: Green for East-West, Red for North-South -->
        <phase duration="30" state="GGGgrrrrGGGgrrrr"/>
        
        <!-- Phase 2: Yellow transition -->
        <phase duration="3" state="yyyyrrrryyyyrrrr"/>
        
        <!-- Phase 3: Green for North-South, Red for East-West -->
        <phase duration="30" state="rrrrGGGgrrrrGGGg"/>
        
        <!-- Phase 4: Yellow transition -->
        <phase duration="3" state="rrrryyyyrrrryyyy"/>
    </tlLogic>
</additional>