<additional>
    <tlLogic id="center" type="static" programID="optimized" offset="0">
        <phase duration="40" state="GGGgrrrrGGGgrrrr"/> <!-- Longer EW green -->
        <phase duration="3" state="yyyyrrrryyyyrrrr"/>
        <phase duration="20" state="rrrrGGGgrrrrGGGg"/> <!-- Shorter NS green -->
        <phase duration="3" state="rrrryyyyrrrryyyy"/>
    </tlLogic>
</additional>