<configuration>
    <input>
        <net-file value="../networks/intersection.net.xml"/>
        <route-files value="../routes/vehicles.rou.xml"/>
        <additional-files value="../config/traffic_lights.tll.xml"/>
    </input>
    <time>
        <begin value="0"/>
        <end value="3600"/> <!-- 1-hour simulation -->
    </time>
    <output>
        <tripinfo-output value="../analysis/tripinfo.xml"/>
        <summary-output value="../analysis/summary.xml"/>
    </output>
</configuration>