<configuration>
    <input>
        <net-file value="../networks/intersection.net.xml"/>
        <route-files value="../routes/vehicles.rou.xml"/>
        <!-- No traffic light file included -->
    </input>
    <time>
        <begin value="0"/>
        <end value="3600"/>
    </time>
    <output>
        <tripinfo-output value="../output/tripinfo_no_tls.xml"/>
    </output>
</configuration>